LAMMPS (29 Sep 2021)
# PREREQUISITES:
#
#     You must use moltemplate.sh to create 3 files:
#        system.data  system.in.init  system.in.settings
#     (Follow the instructions in README_setup.sh,
#      or run the file as a script using ./README_setup.sh)

# ------------------------------- Initialization Section --------------------

include         system.in.init
  atom_style full
  units real
  bond_style harmonic
  angle_style harmonic
  dihedral_style opls
  improper_style harmonic
  pair_style lj/cut/coul/long 11.0 11.0
  pair_modify mix geometric
  kspace_style pppm 0.0001

# ------------------------------- Atom Definition Section -------------------

read_data       system.data
Reading data file ...
  orthogonal box = (0.0000000 0.0000000 0.0000000) to (62.400000 62.400000 62.400000)
  reading atoms ...
  168 atoms
  scanning bonds ...
  scanning angles ...
  scanning dihedrals ...
  reading bonds ...
  156 bonds
  reading angles ...
  288 angles
  reading dihedrals ...
  324 dihedrals
Finding 1-2 1-3 1-4 neighbors ...
     4 = max # of 1-2 neighbors
     6 = max # of 1-3 neighbors
     9 = max # of 1-4 neighbors
    13 = max # of special neighbors

# ------------------------------- Settings Section --------------------------

include         system.in.settings
  pair_coeff 1 1 0.066 3.5
  pair_coeff 2 2 0.066 3.5
  pair_coeff 3 3 0.03 2.5
  bond_coeff 1 268.0 1.529
  bond_coeff 2 340.0 1.09
  angle_coeff 1 58.35 112.7
  angle_coeff 2 33.0 107.8
  angle_coeff 3 37.5 110.7
  dihedral_coeff 1 1.3 -0.05 0.2 0.0
  dihedral_coeff 2 0.0 0.0 0.3 0.0
  dihedral_coeff 3 0.0 0.0 0.3 0.0
  set type 1 charge -0.18
Setting atom values ...
  24 settings made for charge
  set type 2 charge -0.12
Setting atom values ...
  24 settings made for charge
  set type 3 charge 0.06
Setting atom values ...
  120 settings made for charge
include         system.in.charges

# ------------------------------- Run Section -------------------------------

# To avoid explosions, I have a 4-step equilibraion process (expand, minimize,
# reorient, compress).  The system (as defined in the "system.data" file)
# is already expanded.  That means there are 3 steps left:

dump            dumpeq1 all custom 50 traj_eq1_min.lammpstrj id mol type x y z ix iy iz
thermo_style    custom step time temp press vol density pe etotal epair ebond eangle edihed
thermo          50
thermo_modify   norm yes

# -- Equilibration: part 1: initial minimization --

# Note: In general, it's always a good idea to minimize the system at first.

minimize 1.0e-5 1.0e-7 100000 400000
PPPM initialization ...
  G vector (1/distance) = 0.077713503
  grid = 4 4 4
  stencil order = 5
  estimated absolute RMS force accuracy = 0.033197132
  estimated relative force accuracy = 9.9972176e-05
  3d grid and FFT values/proc = 343 8
  update every 1 steps, delay 0 steps, check yes
Step Time Temp Press Volume Density PotEng TotEng E_pair E_bond E_angle E_dihed
0            0            0   -22.469697    242970.62  0.004766856   0.16663352   0.16663352   0.10261751  0.004253558  0.059762447 1.4122301e-16
Loop time of 0.0738082 on 8 procs for 61 steps with 168 atoms

Minimization stats:
  Stopping criterion = energy tolerance
  Energy initial, next-to-last, final =
  Force two-norm initial, final = 101.42457 7.9244281
  Force max component initial, final = 14.922581 1.1855682
  Final line search alpha, max atom move = 0.042172023 0.049997810
  Iterations, force evaluations = 61 178

undump          dumpeq1

write_data   system_after_eq1_min.data
System init for write_data ...
PPPM initialization ...
  G vector (1/distance) = 0.077713503
  grid = 4 4 4
  stencil order = 5
  estimated absolute RMS force accuracy = 0.033197132
  estimated relative force accuracy = 9.9972176e-05
  3d grid and FFT values/proc = 343 8

# -- Equilibration part 2: reorienting the molecules (NVT) --

timestep        1.0
dump dumpeq2 all custom 200 traj_eq2_reorient.lammpstrj id mol type x y z ix iy iz

# Give each atom a random initial velocity consistent with a system at 900.0K.
velocity all create 900.0 12345

# Run the system at high temperature (at constant volume) to reorient the
# the molecules (which would otherwise be pointing in the same direction).

# To speed it up, I randomize the atomic positions for a few thousand steps
# using fix langevin (and fix nve).  Then I switch to fix nvt (Nose-Hoover).
# (If I start with fix nvt (Nose-Hoover), it seems to get "stuck" for a while.)

fix fxlan all langevin  900.0 900.0  120 48279
fix fxnve all nve

run             4000
PPPM initialization ...
  G vector (1/distance) = 0.077713503
  grid = 4 4 4
  stencil order = 5
  estimated absolute RMS force accuracy = 0.033197132
  estimated relative force accuracy = 9.9972176e-05
  3d grid and FFT values/proc = 343 8
Step Time Temp Press Volume Density PotEng TotEng E_pair E_bond E_angle E_dihed
61            0          900    78.663092    242970.62  0.004766856 -0.0076420745    2.6591183 -0.026541446 0.0010279999  0.016203653 0.0016677178
Averages over the last 41 of 82 rows, steps 2100 to 4061:
Temp Press Volume Density PotEng TotEng E_pair E_bond E_angle E_dihed
923.16 -5.69619 242971 0.00476686 2.51484 5.25022 0.160494 0.919717 1.22615 0.208475
Loop time of 0.923831 on 8 procs for 4000 steps with 168 atoms

unfix fxlan
unfix fxnve
# Now continue the simulation at high temperature using fix nvt (Nose-Hoover).
fix fxnvt all nvt temp 900.0 900.0 100.0

run             10000
PPPM initialization ...
  G vector (1/distance) = 0.077713503
  grid = 4 4 4
  stencil order = 5
  estimated absolute RMS force accuracy = 0.033197132
  estimated relative force accuracy = 9.9972176e-05
  3d grid and FFT values/proc = 343 8
Step Time Temp Press Volume Density PotEng TotEng E_pair E_bond E_angle E_dihed
4061         4000    941.70702  -0.72104733    242970.62  0.004766856    2.6620607    5.4524018   0.15233571   0.99972904     1.306117   0.20387888
Averages over the last 101 of 202 rows, steps 9100 to 14061:
Temp Press Volume Density PotEng TotEng E_pair E_bond E_angle E_dihed
889.994 3.90201 242971 0.00476686 2.45626 5.09337 0.204107 0.793416 1.2494 0.209338
Loop time of 1.72932 on 8 procs for 10000 steps with 168 atoms

undump dumpeq2

write_data   system_after_eq2_reorient.data
System init for write_data ...
PPPM initialization ...
  G vector (1/distance) = 0.077713503
  grid = 4 4 4
  stencil order = 5
  estimated absolute RMS force accuracy = 0.033197132
  estimated relative force accuracy = 9.9972176e-05
  3d grid and FFT values/proc = 343 8

unfix fxnvt

# -- equilibration part 3: Equilibrating the density (NPT) --

# Originally, the simulation box (in "system.data" and "system.lt") was
# unrealistically large.  The spacing between the molecules was large also.
# I did this to enable the molecules to move freely and reorient themselves.
# After doing that, we should run the simulation under NPT conditions to
# allow the simulation box to contract to it's natural size.
# To help it collapse, we begin the simulation at a relatively high pressure
# Later on, we will slowly decrease it to 1 bar.

# First cool the system. (Do this at high pressure to avoid bubble formation.)

dump dumpeq3 all custom 200 traj_eq3_npt.lammpstrj id mol type x y z ix iy iz
fix fxnpt all npt temp 900.0 260.0 100.0 iso 500.0 500.0 1000.0 drag 2.0

timestep        1.0
run             20000
PPPM initialization ...
  G vector (1/distance) = 0.077713503
  grid = 4 4 4
  stencil order = 5
  estimated absolute RMS force accuracy = 0.033197132
  estimated relative force accuracy = 9.9972176e-05
  3d grid and FFT values/proc = 343 8
Step Time Temp Press Volume Density PotEng TotEng E_pair E_bond E_angle E_dihed
14061        14000    879.45444    25.426915    242970.62  0.004766856    2.3468061    4.9526887   0.19092086   0.71066514    1.2367489   0.20847123
Averages over the last 201 of 402 rows, steps 24100 to 34061:
Temp Press Volume Density PotEng TotEng E_pair E_bond E_angle E_dihed
430.529 111.663 5829.58 0.211048 1.16508 2.44077 0.0629532 0.367538 0.584285 0.150304
Loop time of 5.40304 on 8 procs for 20000 steps with 168 atoms

# At the very end of the previous simulation, the temperature dropped below
# the boiling point.  Run the simulation for longer at these conditions to
# give it a chance for the vapor -> liquid transition to complete.
# We will also slowly decrease the pressure to 1 bar.

unfix fxnpt
fix fxnpt all npt temp 260.0 260.0 100.0 iso 500.0 1.0 1000.0 drag 2.0

timestep        1.0
run             200000
PPPM initialization ...
  G vector (1/distance) = 0.20870784
  grid = 5 5 5
  stencil order = 5
  estimated absolute RMS force accuracy = 0.0028267978
  estimated relative force accuracy = 8.5128177e-06
  3d grid and FFT values/proc = 512 30
Step Time Temp Press Volume Density PotEng TotEng E_pair E_bond E_angle E_dihed
34061        34000    257.03833    1925.4582    3805.7985   0.30432666    0.7655883    1.5272101  0.024578466   0.27403673   0.36240316   0.10456995
Averages over the last 2001 of 4002 rows, steps 134100 to 234061:
Temp Press Volume Density PotEng TotEng E_pair E_bond E_angle E_dihed
260.069 80.0605 1849.68 0.627206 0.456792 1.22739 -0.217849 0.248254 0.352314 0.0740728
Loop time of 108.24 on 8 procs for 200000 steps with 168 atoms

write_data   system_after_eq3_npt.data
System init for write_data ...
PPPM initialization ...
  G vector (1/distance) = 0.21010626
  grid = 4 4 4
  stencil order = 5
  estimated absolute RMS force accuracy = 0.0037759052
  estimated relative force accuracy = 1.1371026e-05
  3d grid and FFT values/proc = 343 8
